LTspice 26.0.1 for Windows
Circuit: C:\Users\david\OneDrive\Desktop\Ltspice vezbe\merac struje mppt.net
Start Time: Sat Jan 31 23:22:04 2026
solver = Normal
Maximum thread count: 8
tnom = 27
temp = 27
method = trap
Direct Newton iteration failed to find operating point.
Starting Gmin stepping
Gmin stepping succeeded in finding the operating point.

Total elapsed time: 0.330 seconds.

Files loaded:
C:\Users\david\OneDrive\Desktop\Ltspice vezbe\merac struje mppt.net
C:\Users\david\AppData\Local\LTspice\lib\sub\LTC.lib

