LTspice 26.0.1 for Windows
Circuit: C:\Users\david\OneDrive\Desktop\Ltspice vezbe\vezba2.net
Start Time: Thu Jan 29 18:57:11 2026
solver = Normal
Maximum thread count: 8
tnom = 27
temp = 27
method = trap
.OP point found by inspection.
.OP point found by inspection.
Total elapsed time: 0.199 seconds.

Files loaded:
C:\Users\david\OneDrive\Desktop\Ltspice vezbe\vezba2.net

