LTspice 26.0.1 for Windows
Circuit: C:\Users\david\OneDrive\Documents\LTspice\Draft4.net
Start Time: Thu Jan 29 18:39:07 2026
solver = Normal
Maximum thread count: 8
tnom = 27
temp = 27
method = trap
.OP point found by inspection.
.OP point found by inspection.
Total elapsed time: 0.420 seconds.

Files loaded:
C:\Users\david\OneDrive\Documents\LTspice\Draft4.net
C:\Users\david\AppData\Local\LTspice\lib\cmp\standard.dio

